Circuit: * C:\Users\jorge\OneDrive\Documentos\LTspiceXVII\Draft1.asc


Date: Thu Nov 23 23:59:56 2017
Total elapsed time: 0.069 seconds.

tnom = 27
temp = 27
method = trap
totiter = 0
traniter = 0
tranpoints = 0
accept = 0
rejected = 0
matrix size = 4
fillins = 0
solver = Normal

